<?xml version="1.0" encoding="UTF-8"?>

<!-- generated on 2022-08-05 10:34:50 by Eclipse SUMO duarouter Version 1.14.1
<configuration xmlns:xsi="http://www.w3.org/2001/XMLSchema-instance" xsi:noNamespaceSchemaLocation="http://sumo.dlr.de/xsd/duarouterConfiguration.xsd">

    <input>
        <net-file value="network.net.xml"/>
        <route-files value="sumo.rou.xml"/>
    </input>

    <time>
		<begin value="0"/>
		<end value="86400/>
	<time/>

</configuration>